; Filename: ./Networks/Epanet.inp
; WNTR: 1.0.0
; Created: 2023-08-03 16:06:09
[TITLE]

[JUNCTIONS]
;ID                      Elevation       Demand Pattern                 
 3                                281               0 1                          ;
 1                                175               7 1                          ;
 5                                252               0 1                          ;
 6                                280            1.27 1                          ;
 7                                244               0 1                          ;
 14                               260               0 1                          ;
 15                               260               3 1                          ;
 16                               260               2 1                          ;
 17                               260               0 1                          ;
 18                               260               1 1                          ;
 19                               425            1.73 1                          ;
 20                               245               1 1                          ;
 21                               245               1 1                          ;
 22                               245               1 1                          ;
 23                               280               0 1                          ;
 24                               280               0 1                          ;
 25                               280               5 1                          ;
 26                               280               1 1                          ;
 27                               280               1 1                          ;
 29                               250            0.22 1                          ;
 30                               250            1.42 1                          ;
 31                               270               0 1                          ;
 32                               270               0 1                          ;
 33                               260               1 1                          ;
 35                               390               0 1                          ;
 36                               390               0 1                          ;
 37                               310               0 1                          ;
 38                               310               0 1                          ;
 39                               250            4.92 1                          ;
 40                               270               3 1                          ;

[RESERVOIRS]
;ID                                   Head                  Pattern
 2                                439                            ;
 12                               318                            ;

[TANKS]
;ID                              Elevation           Init Level            Min Level            Max Level             Diameter           Min Volume Volume Curve         Overflow            
 Rezervoar                        325               1             0.3               3               5               0                                             ;
 10                               322               1             0.1               2               6               0                                             ;
 11                               302               2             0.1               2               6               0                                             ;
 4                                420               1             0.2               2               3               0                                             ;

[PIPES]
;ID                   Node1                Node2                              Length             Diameter            Roughness           Minor Loss               Status
 2                    3                    Rezervoar                        800            81.4            0.01               0                 Open   ;
 1                    Rezervoar            1                               2700            96.8            0.01               0                 Open   ;
 6                    3                    5                                800           144.6            0.01               0                 Open   ;
 14                   14                   15                               600           144.6            0.01               0                 Open   ;
 16                   16                   17                               350           144.6            0.01               0                 Open   ;
 17                   11                   17                               500            99.4            0.01               0                 Open   ;
 18                   17                   18                               600           144.6            0.01               0                 Open   ;
 19                   18                   19                               250            99.4            0.01               0                 Open   ;
 20                   19                   20                               400              57            0.01               0                 Open   ;
 21                   19                   21                              1500              57            0.01               0                 Open   ;
 22                   18                   22                              1000             100            0.01               0                 Open   ;
 23                   1                    23                               500              57            0.01               0                 Open   ;
 24                   23                   24                               150            99.4            0.01               0                 Open   ;
 25                   25                   24                               800              57            0.01               0                 Open   ;
 26                   1                    25                               600              57            0.01               0                 Open   ;
 27                   25                   26                              1200              57            0.01               0                 Open   ;
 31                   29                   16                              1100           144.6            0.01               0                 Open   ;
 33                   30                   29                               600           144.6            0.01               0                 Open   ;
 34                   15                   30                               600           144.6            0.01               0                 Open   ;
 35                   5                    31                               600            99.4            0.01               0                 Open   ;
 36                   31                   7                                600            99.4            0.01               0                 Open   ;
 10                   32                   10                              2200            81.4            0.01               0                 Open   ;
 38                   24                   33                               600              57            0.01               0                 Open   ;
 39                   33                   27                               600              57            0.01               0                 Open   ;
 42                   12                   38                               100           144.6            0.01               0                 Open   ;
 43                   10                   39                               300            99.4            0.01               0                 Open   ;
 44                   7                    32                               100            99.4            0.01               0                 Open   ;
 45                   14                   40                               100            99.4            0.01               0                 Open   ;
 46                   Rezervoar            6                                800            96.8            0.01               0                 Open   ;
 3                    35                   3                               1400           144.6            0.01               0                 Open   ;
 4                    37                   14                              2800           144.6            0.01               0                 Open   ;
 5                    4                    2                                400           144.6            0.01               0                 Open   ;
 8                    4                    36                                 1           144.6            0.01               0                 Open   ;

[PUMPS]
;ID                   Node1                Node2                Properties          

[VALVES]
;ID                   Node1                Node2                            Diameter Type              Setting           Minor Loss
 7                    36                   35                               144 FCV               20               0   ;
 15                   38                   37                               140 FCV               10               0   ;

[TAGS]
;type      name       tag       

[DEMANDS]
;ID        Demand     Pattern   

[STATUS]
;ID        Setting   

[PATTERNS]
;ID        Multipliers

1 0.300000 0.300000 0.200000 0.200000 1.100000 1.500000
1 2.000000 1.300000 1.200000 1.000000 1.200000 1.400000
1 1.300000 1.500000 2.000000 1.500000 1.200000 1.000000
1 1.000000 0.900000 0.700000 0.700000 0.300000 0.300000

2 1.000000 1.000000 1.000000 1.000000 1.000000 1.000000
2 1.000000 1.000000 1.000000 1.000000 1.000000 1.000000
2 1.000000 1.000000 1.000000 1.000000 1.000000 1.000000
2 1.000000 1.000000 1.000000 1.000000 1.000000 1.000000

[CURVES]
;ID         X-Value      Y-Value     

[CONTROLS]
Pipe 10 Closed IF Tank 10 above 2.5
Pipe 10 Open IF Tank 10 below 1.0
Pipe 2 Closed IF Tank Rezervoar above 2.5
Pipe 2 Open IF Tank Rezervoar below 1.0
Pipe 5 Closed IF Tank 4 above 2.0
Pipe 5 Open IF Tank 4 below 1.0
Pipe 17 Closed IF Tank 11 above 2.0
Pipe 17 Open IF Tank 11 below 1.0

[RULES]

[ENERGY]
GLOBAL EFFICIENCY      75.0000
GLOBAL PRICE           0.0000
DEMAND CHARGE          0.0000

[EMITTERS]
;ID        Flow coefficient

[QUALITY]

[SOURCES]
;Node      Type       Quality    Pattern   

[REACTIONS]
;Type           Pipe/Tank               Coefficient

 ORDER BULK 1
 ORDER TANK 1
 ORDER WALL 1
 GLOBAL BULK 0.0000    
 GLOBAL WALL 0.0000    
 LIMITING POTENTIAL 0.0000    
 ROUGHNESS CORRELATION 0.0000    

[MIXING]
;Tank ID             Model Fraction

[TIMES]
DURATION             24:00:00
HYDRAULIC TIMESTEP   01:00:00
QUALITY TIMESTEP     00:05:00
PATTERN TIMESTEP     01:00:00
PATTERN START        00:00:00
REPORT TIMESTEP      01:00:00
REPORT START         00:00:00
START CLOCKTIME      00:00:00 AM
RULE TIMESTEP        00:06:00
STATISTIC            NONE      

[REPORT]
SUMMARY    NO
PAGE       0

[OPTIONS]
UNITS                LPS                 
HEADLOSS             D-W                 
SPECIFIC GRAVITY     1
VISCOSITY            1
TRIALS               40
ACCURACY             0.001
CHECKFREQ            2
MAXCHECK             10
UNBALANCED           CONTINUE 10
PATTERN              1                   
DEMAND MULTIPLIER    1
EMITTER EXPONENT     0.5
QUALITY              NONE                
DIFFUSIVITY          1
TOLERANCE            0.01

[COORDINATES]
;Node      X-Coord    Y-Coord   
3               -1445.738000000      12578.820000000
1                6684.697000000      11839.690000000
5                -735.593000000       9332.443000000
6                3905.797000000      11579.710000000
7                3394.842000000       8999.110000000
14               1815.132000000       9433.892000000
15               3815.132000000       9086.066000000
16               7702.899000000       8362.319000000
17               9409.335000000       8535.342000000
18              12728.175000000       8636.791000000
19              12728.175000000       9375.921000000
20              11162.958000000       9419.400000000
21              14496.291000000       9506.356000000
22              14702.899000000       8376.812000000
23               6887.596000000      10013.603000000
24               8670.204000000      10100.559000000
25               8655.712000000      12883.168000000
26              14076.002000000      12694.762000000
27              13220.929000000      10897.661000000
29               5717.391000000       8492.754000000
30               4413.043000000       8710.145000000
31               1644.928000000       9362.319000000
32               3601.449000000       8652.174000000
33              11036.232000000      11202.899000000
35              -2862.319000000      12695.652000000
36              -3427.536000000      12724.638000000
37              -3528.986000000       6463.768000000
38              -4210.145000000       6550.725000000
39              10876.812000000       7101.449000000
40               1673.913000000       8318.841000000
2               -4934.783000000      12927.536000000
12              -4905.797000000       6565.217000000
Rezervoar          61.509000000      12086.066000000
10               8989.045000000       5622.298000000
11               9543.478000000       7246.377000000
4               -4036.232000000      12855.072000000

[VERTICES]
;Link      X-Coord    Y-Coord   
6               -1068.926000000      12071.574000000
6                -996.462000000      11825.197000000
6                -837.042000000      11491.863000000
6                -822.549000000      11259.979000000
6                -779.071000000      10912.153000000
6                -764.578000000      10564.327000000
6                -764.578000000      10216.501000000
6                -779.071000000       9984.617000000
6                -779.071000000       9651.284000000
14               2568.755000000       9332.443000000
14               3104.987000000       9187.516000000
26               6916.581000000      12665.777000000
26               7409.335000000      12897.661000000
27               8713.683000000      13346.936000000
27               9510.784000000      13578.820000000
27              10583.248000000      13752.733000000
27              11728.175000000      13520.849000000
27              12800.639000000      13752.733000000
27              13409.335000000      13738.240000000
27              13844.117000000      13491.863000000
10               4586.957000000       8289.855000000
10               5311.594000000       7724.638000000
10               5514.493000000       7260.870000000
10               6253.623000000       6695.652000000
10               7311.594000000       5971.014000000
38               9210.145000000      10550.725000000
38               9688.406000000      10927.536000000
38              10471.014000000      11144.928000000
39              11702.899000000      11202.899000000
39              12427.536000000      11057.971000000
43               9789.855000000       6231.884000000
43              10239.130000000       6739.130000000
46               2253.623000000      11478.261000000
4               -2862.319000000       6666.667000000
4               -1891.304000000       7666.667000000
4               -1543.478000000       8565.217000000
4               -1340.580000000       9202.899000000
4                -789.855000000       9463.768000000

[LABELS]
 3586.957          	11420.290         	"?ivcici"
 10278.900         	12796.211         	"Aljici, Musici, ?ibovici, Nukici"
 297.101           	8362.319          	"?urdrevik"
 7847.826          	7304.348          	"R-Vrankovine"
 8673.913          	5043.478          	"R-Kovaci"
 -4746.377         	13652.174         	"Zahvat Zenunovacka  rijeka"
 456.522           	12724.638         	"Gornja zona"
 11268.116         	6463.768          	"Kovaci"
 8195.652          	9043.478          	"Stari ?urdevik"
 2789.855          	14144.928         	"POSTOJECE STANJE"

[BACKDROP]
DIMENSIONS    0.000    0.000    10000.000    10000.000
UNITS    NONE
OFFSET    0.00    0.00

[END]
